OPEN FOAM
ABAQUS
Altair HyperWorks
Autodesk CFD
IVRESS
Nastran
SAMCEF
LS-DYNA
FreeCAD
STAAD PRO
ETABS
SAP
